Error: Could not find include file ../../../libs.tech/ngspice/parasitics/sky130_fd_pr__model__parasitic__diode_pw2dn__extended_drain.model.spice
Error: Could not find include file ../../../libs.tech/ngspice/parasitics/sky130_fd_pr__model__parasitic__diode_ps2dn__extended_drain.model.spice

Note: Compatibility modes selected: hs a

Warning: m=xx on .subckt line will override multiplier m hierarchy!


Circuit: test opamp acdc

option SCALE: Scale is set to 1e-06 for instance and model parameters
Doing analysis at TEMP = 27.000000 and TNOM = 27.000000


No. of Data Rows : 166
Error: no such vector as time, frquency or v-sweep.

Error: measure  maxval  max(TRIG) : out of interval
 meas dc maxval max v(vout6) from=-40 to=125 failed!

Error: no such vector as time, frquency or v-sweep.

Error: measure  minval  min(TRIG) : out of interval
 meas dc minval min v(vout6) from=-40 to=125 failed!

Error: no such vector as time, frquency or v-sweep.

Error: measure  avgval  avg(TRIG) : out of interval
 meas dc avgval avg v(vout6) from=-40 to=125 failed!

Error: no such vector as time, frquency or v-sweep.

Error: measure  ppavl  pp(TRIG) : out of interval
 meas dc ppavl pp v(vout6) from=-40 to=125 failed!

Warning from checkvalid: vector ppavl is not available or has zero length.
Error: RHS "ppavl/avgval/165" invalid
ivdd25              =  -3.547314e-04
vout25              =  7.190883e-01
Error: no such vector TC

Warning: command 'plot' is not available during batch simulation, ignored!
    You may use Gnuplot instead.

Doing analysis at TEMP = 27.000000 and TNOM = 27.000000

Note: Starting dynamic gmin stepping
Trying gmin =   1.0000E-03 Note: One successful gmin step
Trying gmin =   1.0000E-04 Note: One successful gmin step
Trying gmin =   1.0000E-05 Note: One successful gmin step
Trying gmin =   1.0000E-06 Note: One successful gmin step
Trying gmin =   1.0000E-07 Note: One successful gmin step
Trying gmin =   1.0000E-08 Note: One successful gmin step
Trying gmin =   1.0000E-09 Note: One successful gmin step
Trying gmin =   1.0000E-10 Note: One successful gmin step
Trying gmin =   1.0000E-11 Note: One successful gmin step
Trying gmin =   1.0000E-12 Note: One successful gmin step
Trying gmin =   1.0000E-12 Note: One successful gmin step
Note: Dynamic gmin stepping completed

No. of Data Rows : 101
cmrrdc              =  -3.803071e+01
dcgain_             =  1.024711e+02
gain_bandwidth_product_=  2.137939e+05
phase_margin        =  7.995690e+01
dcpsrp              =  -3.771680e+01
dcpsrn              =  -6.685577e+01

Warning: command 'plot' is not available during batch simulation, ignored!
    You may use Gnuplot instead.

Doing analysis at TEMP = 27.000000 and TNOM = 27.000000

Note: Starting dynamic gmin stepping
Trying gmin =   1.0000E-03 Note: One successful gmin step
Trying gmin =   1.0000E-04 Note: One successful gmin step
Trying gmin =   1.0000E-05 Note: One successful gmin step
Trying gmin =   1.0000E-06 Note: One successful gmin step
Trying gmin =   1.0000E-07 Note: One successful gmin step
Trying gmin =   1.0000E-08 Note: One successful gmin step
Trying gmin =   1.0000E-09 Note: One successful gmin step
Trying gmin =   1.0000E-10 Note: One successful gmin step
Trying gmin =   1.0000E-11 Note: One successful gmin step
Trying gmin =   1.0000E-12 Note: One successful gmin step
Trying gmin =   1.0000E-12 Note: One successful gmin step
Note: Dynamic gmin stepping completed

No. of Data Rows : 1
ASCII raw file "AMP_NMCF_op"
Note: Simulation executed from .control section 
